07_CYME/Mocksville_Main_2403.sxst_DSS/Elements/Lines.dss
New Line.624564266 Phases= 3 Bus1=254437501.1.2.3 Bus2=624564264.1.2.3 Length=57.88  units=m  Spacing=8'-ARM-NON-CENTER-POST-3PH wires=['4-ACSR-B-6X1' '4-ACSR-B-6X1' '1/0-ACSR-B-6X1' '2-ACSR-B-6X1']
New Line.261004695 Bus1=254461082.2     Bus2=261004697.2     LineCode=1/0-AL-TRXLPELCJ-25KV Phases= 1 Length=91.47  units=m enable=yes
New Line.254449269 Phases= 1 Bus1=254449266.1     Bus2=254449271.1     Length=42.26  units=m  Spacing=VERTICAL-1-PH-60-1PH wires=['2-ACSR-B-6X1' '2-ACSR-B-6X1']
New Line.254449371 Phases= 1 Bus1=254449368.2     Bus2=254449373.2     Length=78.21  units=m  Spacing=VERTICAL-1-PH-60-1PH wires=['2-ACSR-B-6X1' '2-ACSR-B-6X1']
New Line.254437830 Phases= 3 Bus1=254437827.1.2.3 Bus2=254437832.1.2.3 Length=53.30  units=m  Spacing=8'-ARM-NON-CENTER-POST-3PH wires=['4-ACSR-B-6X1' '4-ACSR-B-6X1' '1/0-ACSR-B-6X1' '2-ACSR-B-6X1']
New Line.260867480 Bus1=260867481.3     Bus2=260867482.3     LineCode=1/0-AL-TRXLPELCJ-25KV Phases= 1 Length=119.40 units=m enable=yes
New Line.617284937 Phases= 1 Bus1=254449306.2     Bus2=617284936.2     Length=143.50 units=m  Spacing=VERTICAL-1-PH-60-1PH wires=['1/0-ACSR-WP-6X1' '1/0-ACSR-WP-6X1']
New Line.254460730 Phases= 1 Bus1=254460727.3     Bus2=254460732.3     Length=47.29  units=m  Spacing=VERTICAL-1-PH-60-1PH wires=['4-ACSR-B-6X1' '4-ACSR-B-6X1']
New Line.254443769 Phases= 1 Bus1=254443766.3     Bus2=254443771.3     Length=11.03  units=m  Spacing=VERTICAL-1-PH-60-1PH wires=['1/0-ACSR-B-6X1' '1/0-ACSR-B-6X1']
New Line.408867712 Phases= 3 Bus1=254448587.1.2.3 Bus2=408867711.1.2.3 Length=47.75  units=m  Spacing=8'-ARM-NON-CENTER-POST-3PH wires=['336-ACSR-B-18X1' '336-ACSR-B-18X1' '336-ACSR-B-18X1' '1/0-ACSR-B-6X1']
New Line.262294872 Phases= 1 Bus1=262294869.1     Bus2=254449246.1     Length=153.60 units=m  Spacing=VERTICAL-1-PH-60-1PH wires=['2-ACSR-B-6X1' '2-ACSR-B-6X1']
New Line.254455327 Phases= 3 Bus1=254455324.1.2.3 Bus2=254455329.1.2.3 Length=45.22  units=m  Spacing=8'-ARM-NON-CENTER-POST-3PH wires=['4-ACSR-B-6X1' '4-ACSR-B-6X1' '4-ACSR-B-6X1' '2-ACSR-B-6X1']
New Line.262292049 Phases= 3 Bus1=262292046.1.2.3 Bus2=254438274.1.2.3 Length=79.13  units=m  Spacing=8'-ARM-NON-CENTER-POST-3PH wires=['1/0-ACSR-B-6X1' '1/0-ACSR-B-6X1' '1/0-ACSR-B-6X1' '2-ACSR-B-6X1']
New Line.254455497 Phases= 3 Bus1=254455489.1.2.3 Bus2=254455499.1.2.3 Length=162.20 units=m  Spacing=8'-ARM-NON-CENTER-POST-3PH wires=['4-ACSR-B-6X1' '4-ACSR-B-6X1' '4-ACSR-B-6X1' '2-ACSR-B-6X1']
New Line.260873749 Bus1=260117537.1     Bus2=260873751.1     LineCode=1/0-AL-TRXLPELCJ-25KV Phases= 1 Length=537.80 units=m enable=yes
New Line.259335209 Phases= 3 Bus1=254444524.1.2.3 Bus2=254444518.1.2.3 Length=10.12  units=m  Spacing=8'-ARM-NON-CENTER-POST-3PH wires=['336-ACSR-B-18X1' '336-ACSR-B-18X1' '336-ACSR-B-18X1' '1/0-ACSR-B-6X1']
New Line.698880752 Phases= 3 Bus1=698880749.1.2.3 Bus2=259425801.1.2.3 Length=62.20  units=m  Spacing=8'-ARM-NON-CENTER-POST-3PH wires=['1/0-ACSR-B-6X1' '1/0-ACSR-B-6X1' '1/0-ACSR-B-6X1' '1/0-ACSR-B-6X1']
New Line.624563712 Phases= 3 Bus1=254433408.1.2.3 Bus2=624563710.1.2.3 Length=84.72  units=m  Spacing=HORIZ-LINE-POST-3PH wires=['336-ACSR-B-18X1' '336-ACSR-B-18X1' '336-ACSR-B-18X1' '1/0-ACSR-B-6X1']
New Line.624620808 Phases= 2 Bus1=624620805.1.2   Bus2=254444424.1.2   Length=42.99  units=m  Spacing=HORIZ-LINE-POST-2PH wires=['1/0-ACSR-WP-6X1' '1/0-ACSR-WP-6X1' '1/0-ACSR-WP-6X1']
New Line.254448697 Phases= 3 Bus1=254448694.1.2.3 Bus2=254448699.1.2.3 Length=56.37  units=m  Spacing=8'-ARM-NON-CENTER-POST-3PH wires=['336-ACSR-B-18X1' '336-ACSR-B-18X1' '336-ACSR-B-18X1' '1/0-ACSR-B-6X1']
New Line.254438220 Phases= 3 Bus1=254438217.1.2.3 Bus2=254438222.1.2.3 Length=52.96  units=m  Spacing=8'-ARM-NON-CENTER-POST-3PH wires=['4-ACSR-B-6X1' '4-ACSR-B-6X1' '4-ACSR-B-6X1' '4-ACSR-B-6X1']
New Line.624565793 Phases= 3 Bus1=263916064.1.2.3 Bus2=624565791.1.2.3 Length=8.80   units=m  Spacing=8'-ARM-STANDARD-3PH wires=['1/0-ACSR-B-6X1' '1/0-ACSR-B-6X1' '1/0-ACSR-B-6X1' '1/0-ACSR-B-6X1']
New Line.264425732 Phases= 3 Bus1=254433339.1.2.3 Bus2=264425734.1.2.3 Length=1.52   units=m  Spacing=8'-ARM-NON-CENTER-POST-3PH wires=['336-ACSR-B-18X1' '336-ACSR-B-18X1' '336-ACSR-B-18X1' '1/0-ACSR-B-6X1']
New Line.620187170 Bus1=620187167.1.2.3 Bus2=620187150.1.2.3 LineCode=1/0-AL-TRXLPELCJ-25KV Phases= 3 Length=168.00 units=m enable=yes
New Line.260116766 Bus1=260116763.1     Bus2=260116768.1     LineCode=1/0-AL-HMWPECN-25KV Phases= 1 Length=193.10 units=m enable=yes
New Line.263988407 Phases= 1 Bus1=263988404.3     Bus2=254438306.3     Length=69.70  units=m  Spacing=VERTICAL-1-PH-60-1PH wires=['1/0-ACSR-B-6X1' '1/0-ACSR-B-6X1']
New Line.624542547 Phases= 3 Bus1=624542544.1.2.3 Bus2=254438289.1.2.3 Length=96.44  units=m  Spacing=8'-ARM-NON-CENTER-POST-3PH wires=['1/0-ACSR-B-6X1' '1/0-ACSR-B-6X1' '1/0-ACSR-B-6X1' '2-ACSR-B-6X1']
New Line.262296417 Phases= 1 Bus1=262296414.1     Bus2=254455339.1     Length=95.62  units=m  Spacing=VERTICAL-1-PH-60-1PH wires=['1/0-ACSR-B-6X1' '1/0-ACSR-B-6X1']
New Line.262291896 Bus1=262291893.1     Bus2=260116109.1     LineCode=2-AL-HMWPECN-25KV Phases= 1 Length=126.00 units=m enable=yes
New Line.259397778 Phases= 2 Bus1=254460114.2.3   Bus2=254460118.2.3   Length=48.88  units=m  Spacing=8'-ARM-STANDARD-2PH wires=['4-ACSR-B-6X1' '4-ACSR-B-6X1' '4-ACSR-B-6X1']
New Line.254459725 Phases= 2 Bus1=254459722.1.3   Bus2=254459727.1.3   Length=77.87  units=m  Spacing=8'-ARM-STANDARD-2PH wires=['4-ACSR-B-6X1' '4-ACSR-B-6X1' '4-ACSR-B-6X1']
New Line.254460516 Phases= 1 Bus1=254460513.2     Bus2=254460518.2     Length=49.46  units=m  Spacing=VERTICAL-1-PH-60-1PH wires=['1/0-ACSR-WP-6X1' '1/0-ACSR-WP-6X1']
New Line.624566308 Phases= 2 Bus1=254437271.1.2   Bus2=624566306.1.2   Length=30.44  units=m  Spacing=8'-ARM-STANDARD-2PH wires=['2-ACSR-B-6X1' '2-ACSR-B-6X1' '2-ACSR-B-6X1']
New Line.262294809 Phases= 3 Bus1=262294806.1.2.3 Bus2=254448925.1.2.3 Length=36.62  units=m  Spacing=8'-ARM-NON-CENTER-POST-3PH wires=['1/0-ACSR-B-6X1' '1/0-ACSR-B-6X1' '1/0-ACSR-B-6X1' '2-ACSR-B-6X1']
New Line.254448972 Phases= 3 Bus1=254448969.1.2.3 Bus2=254448974.1.2.3 Length=48.60  units=m  Spacing=8'-ARM-NON-CENTER-POST-3PH wires=['336-ACSR-B-18X1' '336-ACSR-B-18X1' '336-ACSR-B-18X1' '1/0-ACSR-B-6X1']
New Line.254455649 Phases= 1 Bus1=254455646.1     Bus2=254455651.1     Length=30.99  units=m  Spacing=VERTICAL-1-PH-60-1PH wires=['2-ACSR-B-6X1' '2-ACSR-B-6X1']
New Line.620619003 Phases= 3 Bus1=254443539.1.2.3 Bus2=620619001.1.2.3 Length=33.82  units=m  Spacing=8'-ARM-NON-CENTER-POST-3PH wires=['1/0-ACSR-B-6X1' '1/0-ACSR-B-6X1' '1/0-ACSR-B-6X1' '1/0-ACSR-B-6X1']
New Line.263744501 Bus1=263744498.2     Bus2=261013856.2     LineCode=1/0-AL-TRXLPELCJ-25KV Phases= 1 Length=89.33  units=m enable=yes
New Line.254460990 Phases= 1 Bus1=254460987.3     Bus2=254460992.3     Length=109.00 units=m  Spacing=VERTICAL-1-PH-60-1PH wires=['2-ACSR-B-6X1' '2-ACSR-B-6X1']
New Line.254460226 Phases= 2 Bus1=254460221.2.3   Bus2=254460238.2.3   Length=141.10 units=m  Spacing=8'-ARM-STANDARD-2PH wires=['4-ACSR-B-6X1' '4-ACSR-B-6X1' '4-ACSR-B-6X1']
New Line.262290687 Bus1=262290684.1     Bus2=260115173.1     LineCode=1/0-AL-HMWPECN-25KV Phases= 1 Length=156.30 units=m enable=yes
New Line.617284938 Phases= 1 Bus1=617284936.2     Bus2=254449318.2     Length=63.55  units=m  Spacing=VERTICAL-1-PH-60-1PH wires=['1/0-ACSR-WP-6X1' '1/0-ACSR-WP-6X1']
New Line.385538158 Phases= 3 Bus1=254448435.1.2.3 Bus2=254448440.1.2.3 Length=63.76  units=m  Spacing=8'-ARM-NON-CENTER-POST-3PH wires=['336-ACSR-B-18X1' '336-ACSR-B-18X1' '336-ACSR-B-18X1' '1/0-ACSR-B-6X1']
New Line.728000713 Bus1=260889621.2     Bus2=728000715.2     LineCode=1/0-AL-TRXLPELCJ-25KV Phases= 1 Length=215.50 units=m enable=yes
New Line.259509899 Phases= 1 Bus1=254460044.2     Bus2=259509901.2     Length=80.81  units=m  Spacing=VERTICAL-1-PH-104-1PH wires=['2-ACSR-B-6X1' '2-ACSR-B-6X1']
New Line.260023130 Phases= 3 Bus1=254437449.1.2.3 Bus2=254437455.1.2.3 Length=13.52  units=m  Spacing=8'-ARM-NON-CENTER-POST-3PH wires=['1/0-ACSR-B-6X1' '1/0-ACSR-B-6X1' '1/0-ACSR-B-6X1' '2-ACSR-B-6X1']
New Line.254437624 Phases= 1 Bus1=254437621.1     Bus2=254437626.1     Length=9.25   units=m  Spacing=VERTICAL-1-PH-60-1PH wires=['4-ACSR-B-6X1' '4-ACSR-B-6X1']
New Line.254449044 Phases= 3 Bus1=254448974.1.2.3 Bus2=254449046.1.2.3 Length=67.00  units=m  Spacing=8'-ARM-NON-CENTER-POST-3PH wires=['336-ACSR-B-18X1' '336-ACSR-B-18X1' '336-ACSR-B-18X1' '1/0-ACSR-B-6X1']
New Line.482826487 Phases= 3 Bus1=254444303.1.2.3 Bus2=482826486.1.2.3 Length=87.15  units=m  Spacing=8'-ARM-STANDARD-3PH wires=['1/0-ACSR-B-6X1' '1/0-ACSR-B-6X1' '1/0-ACSR-B-6X1' '1/0-ACSR-B-6X1']
New Line.254449289 Phases= 1 Bus1=254449281.1     Bus2=254449291.1     Length=40.32  units=m  Spacing=VERTICAL-1-PH-60-1PH wires=['2-ACSR-B-6X1' '2-ACSR-B-6X1']
New Line.254438082 Phases= 1 Bus1=254438079.2     Bus2=254438084.2     Length=160.50 units=m  Spacing=VERTICAL-1-PH-60-1PH wires=['2-ACSR-B-6X1' '2-ACSR-B-6X1']
New Line.254443657 Phases= 3 Bus1=254443654.1.2.3 Bus2=254443659.1.2.3 Length=32.53  units=m  Spacing=8'-ARM-NON-CENTER-POST-3PH wires=['1/0-ACSR-B-6X1' '1/0-ACSR-B-6X1' '1/0-ACSR-B-6X1' '1/0-ACSR-B-6X1']
New Line.262292053 Phases= 3 Bus1=254438333.1.2.3 Bus2=262292055.1.2.3 Length=1.52   units=m  Spacing=8'-ARM-NON-CENTER-POST-3PH wires=['1/0-ACSR-B-6X1' '1/0-ACSR-B-6X1' '1/0-ACSR-B-6X1' '1/0-ACSR-B-6X1']
New Line.254443311 Phases= 3 Bus1=254443308.1.2.3 Bus2=254443313.1.2.3 Length=67.51  units=m  Spacing=8'-ARM-NON-CENTER-POST-3PH wires=['4-ACSR-B-6X1' '4-ACSR-B-6X1' '4-ACSR-B-6X1' '4-ACSR-B-6X1']
New Line.254437534 Phases= 1 Bus1=254437531.3     Bus2=254437536.3     Length=43.17  units=m  Spacing=VERTICAL-1-PH-60-1PH wires=['2-ACSR-B-6X1' '2-ACSR-B-6X1']
New Line.624542603 Phases= 3 Bus1=624542600.1.2.3 Bus2=254438368.1.2.3 Length=83.23  units=m  Spacing=8'-ARM-NON-CENTER-POST-3PH wires=['1/0-ACSR-B-6X1' '1/0-ACSR-B-6X1' '1/0-ACSR-B-6X1' '1/0-ACSR-B-6X1']
New Line.624542588 Phases= 3 Bus1=624542585.1.2.3 Bus2=254438358.1.2.3 Length=28.23  units=m  Spacing=8'-ARM-NON-CENTER-POST-3PH wires=['1/0-ACSR-B-6X1' '1/0-ACSR-B-6X1' '1/0-ACSR-B-6X1' '1/0-ACSR-B-6X1']
New Line.261256679 Bus1=259492189.1     Bus2=261256681.1     LineCode=1/0-AL-TRXLPELCJ-25KV Phases= 1 Length=170.80 units=m enable=yes
New Line.254460960 Phases= 1 Bus1=254460912.3     Bus2=254460962.3     Length=113.40 units=m  Spacing=VERTICAL-1-PH-60-1PH wires=['2-ACSR-B-6X1' '2-ACSR-B-6X1']
New Line.254460209 Phases= 1 Bus1=254460206.3     Bus2=254460211.3     Length=137.40 units=m  Spacing=VERTICAL-1-PH-60-1PH wires=['2-ACSR-B-6X1' '2-ACSR-B-6X1']
New Line.254438136 Phases= 3 Bus1=254438123.1.2.3 Bus2=254438138.1.2.3 Length=74.34  units=m  Spacing=8'-ARM-NON-CENTER-POST-3PH wires=['2-ACSR-B-6X1' '2-ACSR-B-6X1' '2-ACSR-B-6X1' '2-ACSR-B-6X1']
New Line.254448568 Phases= 3 Bus1=254448565.1.2.3 Bus2=254448570.1.2.3 Length=74.74  units=m  Spacing=8'-ARM-STANDARD-3PH wires=['336-ACSR-B-18X1' '336-ACSR-B-18X1' '336-ACSR-B-18X1' '336-ACSR-B-18X1']
New Line.254460688 Phases= 3 Bus1=254460675.1.2.3 Bus2=254460690.1.2.3 Length=97.89  units=m  Spacing=8'-ARM-STANDARD-3PH wires=['336-ACSR-B-18X1' '336-ACSR-B-18X1' '336-ACSR-B-18X1' '336-ACSR-B-18X1']
New Line.254455432 Phases= 1 Bus1=254455424.1     Bus2=254455434.1     Length=123.20 units=m  Spacing=VERTICAL-1-PH-60-1PH wires=['2-ACSR-B-6X1' '2-ACSR-B-6X1']
New Line.483410884 Bus1=260115263.1     Bus2=260115268.1     LineCode=1/0-AL-HMWPECN-25KV Phases= 1 Length=340.20 units=m enable=yes
New Line.264398333 Phases= 2 Bus1=264398330.2.3   Bus2=254459879.2.3   Length=111.90 units=m  Spacing=8'-ARM-STANDARD-2PH wires=['4-ACSR-B-6X1' '4-ACSR-B-6X1' '4-ACSR-B-6X1']
New Line.254455158 Phases= 1 Bus1=254455155.2     Bus2=254455160.2     Length=37.42  units=m  Spacing=VERTICAL-1-PH-60-1PH wires=['4-ACSR-B-6X1' '4-ACSR-B-6X1']
New Line.262296160 Phases= 3 Bus1=254454286.1.2.3 Bus2=262296162.1.2.3 Length=1.52   units=m  Spacing=8'-ARM-NON-CENTER-POST-3PH wires=['2-ACSR-B-6X1' '2-ACSR-B-6X1' '2-ACSR-B-6X1' '2-ACSR-B-6X1']
New Line.262290723 Phases= 1 Bus1=262290720.3     Bus2=254433294.3     Length=94.74  units=m  Spacing=VERTICAL-1-PH-60-1PH wires=['1/0-ACSR-B-6X1' '1/0-ACSR-B-6X1']
New Line.254460214 Phases= 1 Bus1=254460206.3     Bus2=254460216.3     Length=52.98  units=m  Spacing=VERTICAL-1-PH-60-1PH wires=['1/0-ACSR-B-6X1' '1/0-ACSR-B-6X1']
New Line.254454272 Phases= 3 Bus1=254454269.1.2.3 Bus2=254454286.1.2.3 Length=78.59  units=m  Spacing=8'-ARM-NON-CENTER-POST-3PH wires=['2-ACSR-B-6X1' '2-ACSR-B-6X1' '2-ACSR-B-6X1' '2-ACSR-B-6X1']
New Line.254448252 Phases= 3 Bus1=254448249.1.2.3 Bus2=254448254.1.2.3 Length=30.15  units=m  Spacing=8'-ARM-NON-CENTER-POST-3PH wires=['4-ACSR-B-6X1' '4-ACSR-B-6X1' '4-ACSR-B-6X1' '4-ACSR-B-6X1']
New Line.254444021 Phases= 3 Bus1=254443993.1.2.3 Bus2=254444023.1.2.3 Length=46.53  units=m  Spacing=8'-ARM-NON-CENTER-POST-3PH wires=['1/0-CU-TBWP-7' '1/0-CU-TBWP-7' '1/0-CU-TBWP-7' '1/0-CU-TBWP-7']
New Line.263664443 Phases= 1 Bus1=263664440.1     Bus2=254443736.1     Length=47.83  units=m  Spacing=NEUTRAL-ON-ARM-1PH wires=['2-ACSR-B-6X1' '2-ACSR-B-6X1']
New Line.263938626 Bus1=254454686.1     Bus2=263938628.1     LineCode=1/0-AL-TRXLPELCJ-25KV Phases= 1 Length=1.52   units=m enable=yes
New Line.259236633 Phases= 3 Bus1=259236634.1.2.3 Bus2=259236635.1.2.3 Length=45.32  units=m  Spacing=8'-ARM-STANDARD-3PH wires=['1/0-ACSR-B-6X1' '1/0-ACSR-B-6X1' '1/0-ACSR-B-6X1' '1/0-ACSR-B-6X1']
New Line.254438087 Phases= 3 Bus1=254438074.1.2.3 Bus2=254438089.1.2.3 Length=77.67  units=m  Spacing=8'-ARM-NON-CENTER-POST-3PH wires=['1/0-ACSR-B-6X1' '1/0-ACSR-B-6X1' '1/0-ACSR-B-6X1' '2-ACSR-B-6X1']
New Line.620619015 Phases= 3 Bus1=620619012.1.2.3 Bus2=254443539.1.2.3 Length=8.76   units=m  Spacing=8'-ARM-NON-CENTER-POST-3PH wires=['1/0-ACSR-B-6X1' '1/0-ACSR-B-6X1' '1/0-ACSR-B-6X1' '1/0-ACSR-B-6X1']
New Line.254443438 Phases= 3 Bus1=254443435.1.2.3 Bus2=254443440.1.2.3 Length=27.18  units=m  Spacing=8'-ARM-NON-CENTER-POST-3PH wires=['1/0-ACSR-B-6X1' '1/0-ACSR-B-6X1' '1/0-ACSR-B-6X1' '1/0-ACSR-B-6X1']
New Line.262293393 Bus1=262293390.1.2.3 Bus2=260116803.1.2.3 LineCode=1/0-AL-HMWPECN-25KV Phases= 3 Length=49.80  units=m enable=yes
New Line.254437713 Phases= 1 Bus1=254437710.1     Bus2=254437715.1     Length=102.50 units=m  Spacing=VERTICAL-1-PH-60-1PH wires=['2-ACSR-B-6X1' '2-ACSR-B-6X1']
New Line.263934659 Bus1=263934656.2     Bus2=261212943.2     LineCode=1/0-AL-TRXLPELCJ-25KV Phases= 1 Length=124.50 units=m enable=yes
New Line.624542040 Phases= 3 Bus1=624542037.1.2.3 Bus2=254438201.1.2.3 Length=44.59  units=m  Spacing=8'-ARM-NON-CENTER-POST-3PH wires=['4-ACSR-B-6X1' '4-ACSR-B-6X1' '4-ACSR-B-6X1' '4-ACSR-B-6X1']
New Line.254448908 Phases= 1 Bus1=254448905.1     Bus2=254448910.1     Length=53.54  units=m  Spacing=VERTICAL-1-PH-60-1PH wires=['2-ACSR-B-6X1' '2-ACSR-B-6X1']
New Line.384228734 Phases= 1 Bus1=384228735.1     Bus2=384228736.1     Length=69.20  units=m  Spacing=VERTICAL-1-PH-104-1PH wires=['2-ACSR-B-6X1' '2-ACSR-B-6X1']
New Line.263903306 Phases= 2 Bus1=254454903.2.3   Bus2=263903308.2.3   Length=1.53   units=m  Spacing=8'-ARM-STANDARD-2PH wires=['4-ACSR-B-6X1' '4-ACSR-B-6X1' '4-ACSR-B-6X1']
New Line.624564482 Phases= 3 Bus1=624564479.1.2.3 Bus2=254437449.1.2.3 Length=14.79  units=m  Spacing=8'-ARM-NON-CENTER-POST-3PH wires=['1/0-ACSR-B-6X1' '1/0-ACSR-B-6X1' '1/0-ACSR-B-6X1' '2-ACSR-B-6X1']
New Line.262296304 Phases= 1 Bus1=254454923.2     Bus2=262296306.2     Length=1.52   units=m  Spacing=VERTICAL-1-PH-60-1PH wires=['2-ACSR-B-6X1' '2-ACSR-B-6X1']
New Line.254444533 Phases= 3 Bus1=254444535.1.2.3 Bus2=254444530.1.2.3 Length=50.60  units=m  Spacing=8'-ARM-NON-CENTER-POST-3PH wires=['336-ACSR-B-18X1' '336-ACSR-B-18X1' '336-ACSR-B-18X1' '1/0-ACSR-B-6X1']
New Line.624540363 Phases= 3 Bus1=624540360.1.2.3 Bus2=254432435.1.2.3 Length=45.81  units=m  Spacing=8'-ARM-NON-CENTER-POST-3PH wires=['336-AAC-B-19' '336-AAC-B-19' '336-AAC-B-19' '336-AAC-B-19']
New Line.264144485 Bus1=254443513.1.2.3 Bus2=264144487.1.2.3 LineCode=1/0-AL-TRXLPELCJ-25KV Phases= 3 Length=1.52   units=m enable=yes
New Line.254448896 Phases= 3 Bus1=254448891.1.2.3 Bus2=254448898.1.2.3 Length=27.53  units=m  Spacing=8'-ARM-NON-CENTER-POST-3PH wires=['1/0-ACSR-B-6X1' '1/0-ACSR-B-6X1' '1/0-ACSR-B-6X1' '2-ACSR-B-6X1']
New Line.254454629 Phases= 1 Bus1=254454626.1     Bus2=254454631.1     Length=68.78  units=m  Spacing=VERTICAL-1-PH-60-1PH wires=['2-ACSR-B-6X1' '2-ACSR-B-6X1']
New Line.617718692 Phases= 3 Bus1=264361084.1.2.3 Bus2=617718690.1.2.3 Length=11.05  units=m  Spacing=8'-ARM-NON-CENTER-POST-3PH wires=['336-ACSR-B-18X1' '336-ACSR-B-18X1' '336-ACSR-B-18X1' '1/0-ACSR-B-6X1']
New Line.262291747 Phases= 3 Bus1=254437412.1.2.3 Bus2=262291749.1.2.3 Length=1.53   units=m  Spacing=8'-ARM-NON-CENTER-POST-3PH wires=['1/0-CU-TBWP-7' '1/0-CU-TBWP-7' '1/0-CU-TBWP-7' '1/0-CU-TBWP-7']
New Line.287672263 Phases= 1 Bus1=287672260.3     Bus2=254432924.3     Length=176.40 units=m  Spacing=VERTICAL-1-PH-60-1PH wires=['2-ACSR-B-6X1' '2-ACSR-B-6X1']
New Line.254466392 Phases= 3 Bus1=254466386.1.2.3 Bus2=254466393.1.2.3 Length=64.51  units=m  Spacing=8'-ARM-NON-CENTER-POST-3PH wires=['1/0-ACSR-B-6X1' '1/0-ACSR-B-6X1' '1/0-ACSR-B-6X1' '1/0-ACSR-B-6X1']
New Line.254455003 Phases= 1 Bus1=254455000.2     Bus2=254455005.2     Length=2.97   units=m  Spacing=VERTICAL-1-PH-60-1PH wires=['4-ACSR-B-6X1' '4-ACSR-B-6X1']
New Line.254460296 Phases= 2 Bus1=254460293.2.3   Bus2=254460298.2.3   Length=18.64  units=m  Spacing=8'-ARM-STANDARD-2PH wires=['4-ACSR-B-6X1' '4-ACSR-B-6X1' '4-ACSR-B-6X1']
New Line.263695012 Phases= 1 Bus1=254443938.2     Bus2=263695014.2     Length=1.52   units=m  Spacing=VERTICAL-1-PH-60-1PH wires=['2-ACSR-B-6X1' '2-ACSR-B-6X1']
New Line.254433307 Phases= 3 Bus1=254433289.1.2.3 Bus2=254433309.1.2.3 Length=16.26  units=m  Spacing=8'-ARM-NON-CENTER-POST-3PH wires=['336-ACSR-B-18X1' '336-ACSR-B-18X1' '336-ACSR-B-18X1' '336-ACSR-B-18X1']
New Line.259368725 Phases= 3 Bus1=254449209.1.2.3 Bus2=259368727.1.2.3 Length=191.70 units=m  Spacing=8'-ARM-NON-CENTER-POST-3PH wires=['1/0-ACSR-B-6X1' '1/0-ACSR-B-6X1' '1/0-ACSR-B-6X1' '1/0-ACSR-B-6X1']
New Line.254438406 Phases= 1 Bus1=254438403.1     Bus2=254438408.1     Length=62.95  units=m  Spacing=VERTICAL-1-PH-60-1PH wires=['2-ACSR-B-6X1' '2-ACSR-B-6X1']
New Line.254454580 Phases= 3 Bus1=254454577.1.2.3 Bus2=254454582.1.2.3 Length=68.53  units=m  Spacing=8'-ARM-NON-CENTER-POST-3PH wires=['2-ACSR-B-6X1' '2-ACSR-B-6X1' '1/0-ACSR-B-6X1' '2-ACSR-B-6X1']
New Line.259402627 Phases= 3 Bus1=254466404.1.2.3 Bus2=259402629.1.2.3 Length=9.21   units=m  Spacing=8'-ARM-STANDARD-3PH wires=['1/0-ACSR-B-6X1' '1/0-ACSR-B-6X1' '1/0-ACSR-B-6X1' '1/0-ACSR-B-6X1']
New Line.620619273 Phases= 3 Bus1=254443504.1.2.3 Bus2=620619271.1.2.3 Length=26.52  units=m  Spacing=8'-ARM-NON-CENTER-POST-3PH wires=['1/0-ACSR-B-6X1' '1/0-ACSR-B-6X1' '1/0-ACSR-B-6X1' '1/0-ACSR-B-6X1']
New Line.624565395 Phases= 1 Bus1=254443958.2     Bus2=624565393.2     Length=35.49  units=m  Spacing=VERTICAL-1-PH-60-1PH wires=['2-ACSR-B-6X1' '2-ACSR-B-6X1']
New Line.263994467 Phases= 3 Bus1=263994464.1.2.3 Bus2=259539240.1.2.3 Length=25.98  units=m  Spacing=8'-ARM-STANDARD-3PH wires=['1/0-ACSR-B-6X1' '1/0-ACSR-B-6X1' '1/0-ACSR-B-6X1' '1/0-ACSR-B-6X1']
New Line.262292013 Phases= 1 Bus1=262292010.2     Bus2=254438197.2     Length=86.18  units=m  Spacing=VERTICAL-1-PH-60-1PH wires=['4-ACSR-B-6X1' '4-ACSR-B-6X1']
New Line.254437437 Phases= 3 Bus1=254437434.1.2.3 Bus2=254437439.1.2.3 Length=14.91  units=m  Spacing=8'-ARM-NON-CENTER-POST-3PH wires=['1/0-ACSR-B-6X1' '1/0-ACSR-B-6X1' '1/0-ACSR-B-6X1' '2-ACSR-B-6X1']
New Line.264425813 Phases= 1 Bus1=254437944.2     Bus2=264425815.2     Length=1.52   units=m  Spacing=VERTICAL-1-PH-60-1PH wires=['1/0-ACSR-B-6X1' '1/0-ACSR-B-6X1']
New Line.259566209 Phases= 1 Bus1=254437944.2     Bus2=254437953.2     Length=112.00 units=m  Spacing=VERTICAL-1-PH-60-1PH wires=['4-ACSR-B-6X1' '4-ACSR-B-6X1']
New Line.262296462 Bus1=262296459.1     Bus2=260118341.1     LineCode=1/0-AL-TRXLPELCJ-25KV Phases= 1 Length=131.30 units=m enable=yes
New Line.264547956 Phases= 3 Bus1=254432639.1.2.3 Bus2=264547958.1.2.3 Length=1.52   units=m  Spacing=8'-ARM-NON-CENTER-POST-3PH wires=['2-CU-B-7' '2-CU-B-7' '2-CU-B-7' '4-CU-B-7']
New Line.262299929 Bus1=262299926.1.2.3 Bus2=260119699.1.2.3 LineCode=1/0-AL-HMWPECN-25KV Phases= 3 Length=67.07  units=m enable=yes
New Line.624565420 Phases= 1 Bus1=263695014.2     Bus2=624565418.2     Length=14.92  units=m  Spacing=VERTICAL-1-PH-60-1PH wires=['2-ACSR-B-6X1' '2-ACSR-B-6X1']
New Line.254455412 Phases= 3 Bus1=254455409.1.2.3 Bus2=254455414.1.2.3 Length=81.59  units=m  Spacing=8'-ARM-NON-CENTER-POST-3PH wires=['4-ACSR-B-6X1' '4-ACSR-B-6X1' '4-ACSR-B-6X1' '2-ACSR-B-6X1']
New Line.261283243 Bus1=261283240.3     Bus2=260119295.3     LineCode=1/0-AL-TRXLPELCJ-25KV Phases= 1 Length=144.30 units=m enable=yes
New Line.254455589 Phases= 2 Bus1=254455586.1.3   Bus2=254455591.1.3   Length=96.93  units=m  Spacing=8'-ARM-STANDARD-2PH wires=['4-ACSR-B-6X1' '4-ACSR-B-6X1' '4-ACSR-B-6X1']
New Line.620619025 Phases= 3 Bus1=254443534.1.2.3 Bus2=620619023.1.2.3 Length=37.23  units=m  Spacing=8'-ARM-NON-CENTER-POST-3PH wires=['1/0-ACSR-B-6X1' '1/0-ACSR-B-6X1' '1/0-ACSR-B-6X1' '1/0-ACSR-B-6X1']
New Line.262296367 Phases= 1 Bus1=254455035.2     Bus2=262296369.2     Length=1.53   units=m  Spacing=VERTICAL-1-PH-60-1PH wires=['2-ACSR-B-6X1' '2-ACSR-B-6X1']
New Line.254448789 Phases= 1 Bus1=254448786.1     Bus2=254448791.1     Length=14.56  units=m  Spacing=VERTICAL-1-PH-60-1PH wires=['4-ACSR-B-6X1' '4-ACSR-B-6X1']
New Line.254448834 Phases= 1 Bus1=254448831.1     Bus2=254448836.1     Length=89.07  units=m  Spacing=VERTICAL-1-PH-60-1PH wires=['1/0-ACSR-B-6X1' '2-ACSR-B-6X1']
New Line.262292062 Phases= 1 Bus1=254438338.1     Bus2=262292064.1     Length=1.53   units=m  Spacing=VERTICAL-1-PH-60-1PH wires=['2-ACSR-B-6X1' '2-ACSR-B-6X1']
New Line.262298092 Phases= 1 Bus1=262298089.2     Bus2=254460044.2     Length=73.42  units=m  Spacing=VERTICAL-1-PH-60-1PH wires=['2-ACSR-B-6X1' '2-ACSR-B-6X1']
New Line.254448615 Phases= 3 Bus1=254448612.1.2.3 Bus2=254448617.1.2.3 Length=11.45  units=m  Spacing=8'-ARM-NON-CENTER-POST-3PH wires=['336-ACSR-B-18X1' '336-ACSR-B-18X1' '336-ACSR-B-18X1' '1/0-ACSR-B-6X1']
New Line.262296412 Phases= 1 Bus1=254455329.1     Bus2=262296414.1     Length=1.53   units=m  Spacing=VERTICAL-1-PH-60-1PH wires=['1/0-ACSR-B-6X1' '1/0-ACSR-B-6X1']
New Line.254437200 Phases= 1 Bus1=254433470.2     Bus2=254437202.2     Length=59.04  units=m  Spacing=VERTICAL-1-PH-60-1PH wires=['1/0-ACSR-B-6X1' '1/0-ACSR-B-6X1']
New Line.263664420 Phases= 3 Bus1=254437217.1.2.3 Bus2=263664422.1.2.3 Length=1.52   units=m  Spacing=8'-ARM-NON-CENTER-POST-3PH wires=['336-ACSR-B-18X1' '336-ACSR-B-18X1' '336-ACSR-B-18X1' '1/0-ACSR-B-6X1']
New Line.254432731 Phases= 3 Bus1=254432728.1.2.3 Bus2=254432733.1.2.3 Length=32.69  units=m  Spacing=8'-ARM-NON-CENTER-POST-3PH wires=['1/0-ACSR-B-6X1' '1/0-ACSR-B-6X1' '1/0-ACSR-B-6X1' '2-ACSR-B-6X1']
New Line.254455063 Phases= 1 Bus1=254455060.2     Bus2=254455065.2     Length=72.81  units=m  Spacing=VERTICAL-1-PH-60-1PH wires=['2-ACSR-B-6X1' '2-ACSR-B-6X1']
New Line.254443981 Phases= 3 Bus1=254443978.1.2.3 Bus2=254443983.1.2.3 Length=50.32  units=m  Spacing=8'-ARM-NON-CENTER-POST-3PH wires=['1/0-CU-TBWP-7' '1/0-CU-TBWP-7' '1/0-CU-TBWP-7' '1/0-CU-TBWP-7']
New Line.254454684 Phases= 1 Bus1=254454656.1     Bus2=254454686.1     Length=121.00 units=m  Spacing=VERTICAL-1-PH-60-1PH wires=['2-ACSR-B-6X1' '2-ACSR-B-6X1']
New Line.624564923 Phases= 1 Bus1=624564920.3     Bus2=254443816.3     Length=36.91  units=m  Spacing=VERTICAL-1-PH-60-1PH wires=['2-ACSR-B-6X1' '4-ACSR-B-6X1']
New Line.624565451 Phases= 1 Bus1=254444008.2     Bus2=624565449.2     Length=16.36  units=m  Spacing=VERTICAL-1-PH-60-1PH wires=['2-ACSR-B-6X1' '2-ACSR-B-6X1']
New Line.259558214 Phases= 3 Bus1=254444325.1.2.3 Bus2=259558216.1.2.3 Length=17.04  units=m  Spacing=8'-ARM-STANDARD-3PH wires=['1/0-ACSR-B-6X1' '1/0-ACSR-B-6X1' '1/0-ACSR-B-6X1' '1/0-ACSR-B-6X1']
New Line.262293370 Bus1=254443619.1.2.3 Bus2=262293372.1.2.3 LineCode=1/0-AL-HMWPECN-25KV Phases= 3 Length=1.52   units=m enable=yes
New Line.262292017 Bus1=254438197.2     Bus2=262292019.2     LineCode=1/0-AL-TRXLPELCJ-25KV Phases= 1 Length=1.52   units=m enable=yes
New Line.254437693 Phases= 3 Bus1=254437685.1.2.3 Bus2=254437695.1.2.3 Length=135.70 units=m  Spacing=8'-ARM-NON-CENTER-POST-3PH wires=['4-ACSR-B-6X1' '4-ACSR-B-6X1' '1/0-ACSR-B-6X1' '2-ACSR-B-6X1']
New Line.624586612 Phases= 3 Bus1=254444058.1.2.3 Bus2=624586610.1.2.3 Length=36.60  units=m  Spacing=8'-ARM-NON-CENTER-POST-3PH wires=['1/0-CU-TBWP-7' '1/0-CU-TBWP-7' '1/0-CU-TBWP-7' '1/0-CU-TBWP-7']
New Line.254443819 Phases= 1 Bus1=254443816.3     Bus2=254443821.3     Length=71.97  units=m  Spacing=VERTICAL-1-PH-60-1PH wires=['2-ACSR-B-6X1' '4-ACSR-B-6X1']
New Line.470628482 Phases= 3 Bus1=264400555.1.2.3 Bus2=469331232.1.2.3 Length=13.38  units=m  Spacing=8'-ARM-NON-CENTER-POST-3PH wires=['336-AAC-B-19' '336-AAC-B-19' '336-AAC-B-19' '336-AAC-B-19']
New Line.254449054 Phases= 3 Bus1=254449051.1.2.3 Bus2=254449056.1.2.3 Length=39.53  units=m  Spacing=8'-ARM-NON-CENTER-POST-3PH wires=['336-ACSR-B-18X1' '336-ACSR-B-18X1' '336-ACSR-B-18X1' '1/0-ACSR-B-6X1']
New Line.254460406 Phases= 2 Bus1=254460403.2.3   Bus2=254460408.2.3   Length=61.26  units=m  Spacing=8'-ARM-STANDARD-2PH wires=['4-ACSR-B-6X1' '4-ACSR-B-6X1' '4-ACSR-B-6X1']
New Line.254459785 Phases= 2 Bus1=254459782.1.3   Bus2=254459787.1.3   Length=66.03  units=m  Spacing=8'-ARM-STANDARD-2PH wires=['4-ACSR-B-6X1' '4-ACSR-B-6X1' '4-ACSR-B-6X1']
New Line.791122297 Phases= 1 Bus1=254444329.1     Bus2=791122299.1     Length=1.53   units=m  Spacing=VERTICAL-1-PH-104-1PH wires=['1/0-ACSR-B-6X1' '1/0-ACSR-B-6X1']
New Line.259545076 Phases= 3 Bus1=254432733.1.2.3 Bus2=259545072.1.2.3 Length=92.08  units=m  Spacing=8'-ARM-NON-CENTER-POST-3PH wires=['1/0-ACSR-B-6X1' '1/0-ACSR-B-6X1' '1/0-ACSR-B-6X1' '2-ACSR-B-6X1']
New Line.459035170 Phases= 1 Bus1=254460907.3     Bus2=459035172.3     Length=1.52   units=m  Spacing=VERTICAL-1-PH-60-1PH wires=['2-ACSR-B-6X1' '2-ACSR-B-6X1']
New Line.254444592 Phases= 3 Bus1=254444589.1.2.3 Bus2=254444594.1.2.3 Length=73.88  units=m  Spacing=8'-ARM-NON-CENTER-POST-3PH wires=['336-ACSR-B-18X1' '336-ACSR-B-18X1' '336-ACSR-B-18X1' '1/0-ACSR-B-6X1']
New Line.259311601 Phases= 3 Bus1=254444584.1.2.3 Bus2=259199760.1.2.3 Length=37.60  units=m  Spacing=8'-ARM-NON-CENTER-POST-3PH wires=['336-ACSR-B-18X1' '336-ACSR-B-18X1' '336-ACSR-B-18X1' '1/0-ACSR-B-6X1']
New Line.620619320 Phases= 3 Bus1=620619317.1.2.3 Bus2=254443499.1.2.3 Length=48.40  units=m  Spacing=8'-ARM-NON-CENTER-POST-3PH wires=['1/0-ACSR-B-6X1' '1/0-ACSR-B-6X1' '1/0-ACSR-B-6X1' '1/0-ACSR-B-6X1']
New Line.262298168 Phases= 1 Bus1=254460253.2     Bus2=262298170.2     Length=1.53   units=m  Spacing=VERTICAL-1-PH-60-1PH wires=['2-ACSR-B-6X1' '2-ACSR-B-6X1']
New Line.264425921 Phases= 3 Bus1=254449004.1.2.3 Bus2=264425923.1.2.3 Length=1.52   units=m  Spacing=8'-ARM-NON-CENTER-POST-3PH wires=['2-ACSR-B-6X1' '2-ACSR-B-6X1' '2-ACSR-B-6X1' '2-ACSR-B-6X1']
New Line.254448324 Phases= 1 Bus1=254448321.2     Bus2=254448326.2     Length=75.57  units=m  Spacing=VERTICAL-1-PH-60-1PH wires=['2-ACSR-B-6X1' '2-ACSR-B-6X1']
New Line.254448232 Phases= 3 Bus1=254448229.1.2.3 Bus2=254448234.1.2.3 Length=47.69  units=m  Spacing=8'-ARM-NON-CENTER-POST-3PH wires=['336-ACSR-B-18X1' '336-ACSR-B-18X1' '336-ACSR-B-18X1' '1/0-ACSR-B-6X1']
New Line.452167140 Bus1=254437480.1.2.3 Bus2=260854005.1.2.3 LineCode=1/0-AL-TRXLPELCJ-25KV Phases= 3 Length=354.40 units=m enable=yes
New Line.264544525 Phases= 3 Bus1=254444641.1.2.3 Bus2=264544527.1.2.3 Length=1.52   units=m  Spacing=8'-ARM-NON-CENTER-POST-3PH wires=['1/0-ACSR-B-6X1' '1/0-ACSR-B-6X1' '1/0-ACSR-B-6X1' '1/0-ACSR-B-6X1']
New Line.254466402 Phases= 3 Bus1=254466386.1.2.3 Bus2=254466404.1.2.3 Length=65.93  units=m  Spacing=8'-ARM-NON-CENTER-POST-3PH wires=['2-ACSR-B-6X1' '2-ACSR-B-6X1' '2-ACSR-B-6X1' '2-ACSR-B-6X1']
New Line.254454831 Phases= 1 Bus1=254454828.2     Bus2=254454833.2     Length=49.23  units=m  Spacing=VERTICAL-1-PH-60-1PH wires=['2-ACSR-B-6X1' '2-ACSR-B-6X1']
New Line.695135419 Phases= 2 Bus1=695135416.1.2   Bus2=254444394.1.2   Length=22.22  units=m  Spacing=HORIZ-LINE-POST-2PH wires=['1/0-ACSR-WP-6X1' '1/0-ACSR-WP-6X1' '1/0-ACSR-WP-6X1']
New Line.254437549 Phases= 1 Bus1=254437546.3     Bus2=254437551.3     Length=52.46  units=m  Spacing=VERTICAL-1-PH-60-1PH wires=['2-ACSR-B-6X1' '2-ACSR-B-6X1']
New Line.254455619 Phases= 1 Bus1=254455611.1     Bus2=254455621.1     Length=118.30 units=m  Spacing=VERTICAL-1-PH-60-1PH wires=['2-ACSR-B-6X1' '2-ACSR-B-6X1']
New Line.254449513 Phases= 1 Bus1=254449510.3     Bus2=254449515.3     Length=32.92  units=m  Spacing=VERTICAL-1-PH-60-1PH wires=['2-ACSR-B-6X1' '2-ACSR-B-6X1']
New Line.274935531 Phases= 1 Bus1=263695014.2     Bus2=254443943.2     Length=112.50 units=m  Spacing=VERTICAL-1-PH-60-1PH wires=['2-ACSR-B-6X1' '2-ACSR-B-6X1']
New Line.263886359 Bus1=254443457.1.2.3 Bus2=263886361.1.2.3 LineCode=1/0-AL-TRXLPELCJ-25KV Phases= 3 Length=1.52   units=m enable=yes
New Line.254454781 Phases= 1 Bus1=254454778.1     Bus2=254454783.1     Length=117.00 units=m  Spacing=VERTICAL-1-PH-60-1PH wires=['2-ACSR-B-6X1' '2-ACSR-B-6X1']
New Line.254433421 Phases= 3 Bus1=254433418.1.2.3 Bus2=254433423.1.2.3 Length=27.52  units=m  Spacing=HORIZ-LINE-POST-3PH wires=['336-ACSR-B-18X1' '336-ACSR-B-18X1' '336-ACSR-B-18X1' '1/0-ACSR-B-6X1']
New Line.263877942 Bus1=254443689.1.2.3 Bus2=263877944.1.2.3 LineCode=1/0-AL-HMWPECN-25KV Phases= 3 Length=1.53   units=m enable=yes
New Line.699304477 Phases= 1 Bus1=254438128.1     Bus2=699304475.1     Length=66.35  units=m  Spacing=VERTICAL-1-PH-60-1PH wires=['2-ACSR-B-6X1' '2-ACSR-B-6X1']
New Line.262293436 Bus1=254443846.3     Bus2=262293438.3     LineCode=1/0-AL-HMWPECN-25KV Phases= 1 Length=1.52   units=m enable=yes
New Line.254443331 Phases= 3 Bus1=254443332.1.2.3 Bus2=254443333.1.2.3 Length=26.87  units=m  Spacing=8'-ARM-NON-CENTER-POST-3PH wires=['4-ACSR-B-6X1' '4-ACSR-B-6X1' '4-ACSR-B-6X1' '4-ACSR-B-6X1']
New Line.254437733 Phases= 1 Bus1=254437730.2     Bus2=254437735.2     Length=155.50 units=m  Spacing=VERTICAL-1-PH-60-1PH wires=['4-ACSR-B-6X1' '4-ACSR-B-6X1']
New Line.254437215 Phases= 3 Bus1=254437212.1.2.3 Bus2=254437217.1.2.3 Length=69.01  units=m  Spacing=HORIZ-LINE-POST-3PH wires=['336-ACSR-B-18X1' '336-ACSR-B-18X1' '336-ACSR-B-18X1' '1/0-ACSR-B-6X1']
New Line.254448804 Phases= 3 Bus1=254448801.1.2.3 Bus2=254448806.1.2.3 Length=81.45  units=m  Spacing=8'-ARM-NON-CENTER-POST-3PH wires=['336-ACSR-B-18X1' '336-ACSR-B-18X1' '336-ACSR-B-18X1' '1/0-ACSR-B-6X1']
New Line.259540043 Phases= 1 Bus1=254443229.2     Bus2=259540045.2     Length=149.60 units=m  Spacing=VERTICAL-1-PH-104-1PH wires=['1/0-ACSR-B-6X1' '1/0-ACSR-B-6X1']
New Line.264544539 Phases= 1 Bus1=264544536.3     Bus2=254449505.3     Length=28.90  units=m  Spacing=VERTICAL-1-PH-60-1PH wires=['2-ACSR-B-6X1' '2-ACSR-B-6X1']
New Line.254455113 Phases= 1 Bus1=254455110.2     Bus2=254455115.2     Length=53.69  units=m  Spacing=VERTICAL-1-PH-60-1PH wires=['2-ACSR-B-6X1' '2-ACSR-B-6X1']
New Line.262296250 Phases= 1 Bus1=254454557.1     Bus2=262296252.1     Length=1.52   units=m  Spacing=VERTICAL-1-PH-60-1PH wires=['2-ACSR-B-6X1' '2-ACSR-B-6X1']
New Line.254448468 Phases= 3 Bus1=254448465.1.2.3 Bus2=254448470.1.2.3 Length=44.24  units=m  Spacing=8'-ARM-NON-CENTER-POST-3PH wires=['336-ACSR-B-18X1' '336-ACSR-B-18X1' '336-ACSR-B-18X1' '1/0-ACSR-B-6X1']
New Line.260115383 Bus1=260115380.3     Bus2=260115340.3     LineCode=1/0-AL-HMWPECN-25KV Phases= 1 Length=34.82  units=m enable=yes
New Line.254455382 Phases= 3 Bus1=254455379.1.2.3 Bus2=254455384.1.2.3 Length=44.51  units=m  Spacing=8'-ARM-NON-CENTER-POST-3PH wires=['4-ACSR-B-6X1' '4-ACSR-B-6X1' '4-ACSR-B-6X1' '2-ACSR-B-6X1']
New Line.262290651 Phases= 1 Bus1=262290648.2     Bus2=254432897.2     Length=192.90 units=m  Spacing=VERTICAL-1-PH-60-1PH wires=['4-ACSR-B-6X1' '4-ACSR-B-6X1']
New Line.254449024 Phases= 3 Bus1=254449021.1.2.3 Bus2=254449026.1.2.3 Length=92.05  units=m  Spacing=8'-ARM-NON-CENTER-POST-3PH wires=['2-ACSR-B-6X1' '2-ACSR-B-6X1' '2-ACSR-B-6X1' '2-ACSR-B-6X1']
New Line.254459830 Phases= 1 Bus1=254459827.3     Bus2=254459832.3     Length=36.42  units=m  Spacing=VERTICAL-1-PH-60-1PH wires=['2-ACSR-B-6X1' '2-ACSR-B-6X1']
New Line.254437892 Phases= 3 Bus1=254437889.1.2.3 Bus2=254437894.1.2.3 Length=36.37  units=m  Spacing=8'-ARM-NON-CENTER-POST-3PH wires=['4-ACSR-B-6X1' '4-ACSR-B-6X1' '1/0-ACSR-B-6X1' '2-ACSR-B-6X1']
New Line.259425600 Phases= 3 Bus1=254466596.1.2.3 Bus2=259425602.1.2.3 Length=4.56   units=m  Spacing=8'-ARM-STANDARD-3PH wires=['2-ACSR-B-6X1' '2-ACSR-B-6X1' '2-ACSR-B-6X1' '2-ACSR-B-6X1']
New Line.262296381 Bus1=262296378.2     Bus2=260118326.2     LineCode=1/0-AL-TRXLPELCJ-25KV Phases= 1 Length=105.90 units=m enable=yes
New Line.254449249 Phases= 1 Bus1=254449246.1     Bus2=254449251.1     Length=55.69  units=m  Spacing=VERTICAL-1-PH-60-1PH wires=['2-ACSR-B-6X1' '2-ACSR-B-6X1']
New Line.264425899 Phases= 3 Bus1=254444513.1.2.3 Bus2=264425896.1.2.3 Length=39.58  units=m  Spacing=8'-ARM-NON-CENTER-POST-3PH wires=['336-ACSR-B-18X1' '336-ACSR-B-18X1' '336-ACSR-B-18X1' '1/0-ACSR-B-6X1']
New Line.262291761 Phases= 3 Bus1=262291758.1.2.3 Bus2=254437476.1.2.3 Length=48.19  units=m  Spacing=8'-ARM-NON-CENTER-POST-3PH wires=['2-ACSR-B-6X1' '2-ACSR-B-6X1' '2-ACSR-B-6X1' '2-ACSR-B-6X1']
New Line.624142607 Phases= 1 Bus1=624142602.2     Bus2=254448746.2     Length=39.89  units=m  Spacing=VERTICAL-1-PH-60-1PH wires=['2-ACSR-B-6X1' '2-ACSR-B-6X1']
New Line.259114164 Phases= 1 Bus1=620370152.3     Bus2=259114166.3     Length=19.08  units=m  Spacing=VERTICAL-1-PH-104-1PH wires=['2-ACSR-B-6X1' '2-ACSR-B-6X1']
New Line.264398328 Phases= 2 Bus1=254459872.2.3   Bus2=264398330.2.3   Length=1.53   units=m  Spacing=8'-ARM-STANDARD-2PH wires=['4-ACSR-B-6X1' '4-ACSR-B-6X1' '4-ACSR-B-6X1']
New Line.254460436 Phases= 1 Bus1=254460433.2     Bus2=254460438.2     Length=123.30 units=m  Spacing=VERTICAL-1-PH-60-1PH wires=['2-ACSR-B-6X1' '2-ACSR-B-6X1']
New Line.254438461 Phases= 1 Bus1=254438458.2     Bus2=254438463.2     Length=105.10 units=m  Spacing=VERTICAL-1-PH-60-1PH wires=['2-ACSR-B-6X1' '2-ACSR-B-6X1']
New Line.254437269 Phases= 2 Bus1=254437266.1.2   Bus2=254437271.1.2   Length=55.50  units=m  Spacing=8'-ARM-STANDARD-2PH wires=['2-ACSR-B-6X1' '2-ACSR-B-6X1' '2-ACSR-B-6X1']
New Line.254459705 Phases= 2 Bus1=254455681.1.3   Bus2=254459707.1.3   Length=64.93  units=m  Spacing=8'-ARM-STANDARD-2PH wires=['4-ACSR-B-6X1' '4-ACSR-B-6X1' '4-ACSR-B-6X1']
New Line.254460845 Phases= 1 Bus1=254460842.3     Bus2=254460847.3     Length=54.25  units=m  Spacing=VERTICAL-1-PH-60-1PH wires=['4-ACSR-B-6X1' '4-ACSR-B-6X1']
New Line.259328985 Phases= 2 Bus1=254444394.1.2   Bus2=254444398.1.2   Length=48.59  units=m  Spacing=HORIZ-LINE-POST-2PH wires=['1/0-ACSR-WP-6X1' '1/0-ACSR-WP-6X1' '1/0-ACSR-WP-6X1']
New Line.254433067 Phases= 3 Bus1=254433057.1.2.3 Bus2=254433069.1.2.3 Length=19.12  units=m  Spacing=8'-ARM-NON-CENTER-POST-3PH wires=['336-ACSR-B-18X1' '336-ACSR-B-18X1' '336-ACSR-B-18X1' '336-ACSR-B-18X1']
...
