07_CYME/Mocksville_Main_2403.sxst_DSS/Elements/Loads.dss
New Load.254454385_2 Bus1=254454385.2 Phases=1 kV=13.8564 XFKVA=25.0 PF=0.95 yearly=YearlyB daily=DailyB
New Load.254454338_1 Bus1=254454338.1 Phases=1 kV=13.8564 XFKVA=25.0 PF=0.95 yearly=YearlyA daily=DailyA
New Load.254448204_3 Bus1=254448204.3 Phases=1 kV=13.8564 XFKVA=25.0 PF=0.95 yearly=YearlyC daily=DailyC
New Load.259143373_2 Bus1=259143373.2 Phases=1 kV=13.8564 XFKVA=25.0 PF=0.95 yearly=YearlyB daily=DailyB
New Load.261127621_3 Bus1=261127621.3 Phases=1 kV=13.8564 XFKVA=25.0 PF=0.95 yearly=YearlyC daily=DailyC
New Load.254460216_3 Bus1=254460216.3 Phases=1 kV=13.8564 XFKVA=25.0 PF=0.95 yearly=YearlyC daily=DailyC
New Load.254460413_2 Bus1=254460413.2 Phases=1 kV=13.8564 XFKVA=25.0 PF=0.95 yearly=YearlyB daily=DailyB
New Load.254455155_2 Bus1=254455155.2 Phases=1 kV=13.8564 XFKVA=25.0 PF=0.95 yearly=YearlyB daily=DailyB
New Load.254438503_2 Bus1=254438503.2 Phases=1 kV=13.8564 XFKVA=50.0 PF=0.95 yearly=YearlyB daily=DailyB
New Load.254460288_3 Bus1=254460288.3 Phases=1 kV=13.8564 XFKVA=25.0 PF=0.95 yearly=YearlyC daily=DailyC
New Load.254454763_2 Bus1=254454763.2 Phases=1 kV=13.8564 XFKVA=25.0 PF=0.95 yearly=YearlyB daily=DailyB
New Load.254432862_1 Bus1=254432862.1 Phases=1 kV=13.8564 XFKVA=25.0 PF=0.95 yearly=YearlyA daily=DailyA
New Load.254438009_2 Bus1=254438009.2 Phases=1 kV=13.8564 XFKVA=15.0 PF=0.95 yearly=YearlyB daily=DailyB
New Load.617284936_2 Bus1=617284936.2 Phases=1 kV=13.8564 XFKVA=37.5 PF=0.95 yearly=YearlyB daily=DailyB
New Load.254444139_1 Bus1=254444139.1 Phases=1 kV=13.8564 XFKVA=25.0 PF=0.95 yearly=YearlyA daily=DailyA
New Load.254444139_2 Bus1=254444139.2 Phases=1 kV=13.8564 XFKVA=25.0 PF=0.95 yearly=YearlyB daily=DailyB
New Load.254444139_3 Bus1=254444139.3 Phases=1 kV=13.8564 XFKVA=25.0 PF=0.95 yearly=YearlyC daily=DailyC
New Load.254460685_2 Bus1=254460685.2 Phases=1 kV=13.8564 XFKVA=10.0 PF=0.95 yearly=YearlyB daily=DailyB
New Load.254449169_1 Bus1=254449169.1 Phases=1 kV=13.8564 XFKVA=10.0 PF=0.95 yearly=YearlyA daily=DailyA
New Load.254449169_2 Bus1=254449169.2 Phases=1 kV=13.8564 XFKVA=10.0 PF=0.95 yearly=YearlyB daily=DailyB
New Load.254449169_3 Bus1=254449169.3 Phases=1 kV=13.8564 XFKVA=10.0 PF=0.95 yearly=YearlyC daily=DailyC
New Load.254455364_3 Bus1=254455364.3 Phases=1 kV=13.8564 XFKVA=25.0 PF=0.95 yearly=YearlyC daily=DailyC
New Load.254433259_3 Bus1=254433259.3 Phases=1 kV=13.8564 XFKVA=25.0 PF=0.95 yearly=YearlyC daily=DailyC
New Load.254460518_2 Bus1=254460518.2 Phases=1 kV=13.8564 XFKVA=25.0 PF=0.95 yearly=YearlyB daily=DailyB
New Load.254438259_1 Bus1=254438259.1 Phases=1 kV=13.8564 XFKVA=25.0 PF=0.95 yearly=YearlyA daily=DailyA
New Load.254448810_1 Bus1=254448810.1 Phases=1 kV=13.8564 XFKVA=15.0 PF=0.95 yearly=YearlyA daily=DailyA
New Load.254448810_2 Bus1=254448810.2 Phases=1 kV=13.8564 XFKVA=15.0 PF=0.95 yearly=YearlyB daily=DailyB
New Load.254448810_3 Bus1=254448810.3 Phases=1 kV=13.8564 XFKVA=15.0 PF=0.95 yearly=YearlyC daily=DailyC
New Load.254454557_2 Bus1=254454557.2 Phases=1 kV=13.8564 XFKVA=25.0 PF=0.95 yearly=YearlyB daily=DailyB
New Load.254455596_1 Bus1=254455596.1 Phases=1 kV=13.8564 XFKVA=10.0 PF=0.95 yearly=YearlyA daily=DailyA
New Load.259275415_3 Bus1=259275415.3 Phases=1 kV=13.8564 XFKVA=15.0 PF=0.95 yearly=YearlyC daily=DailyC
New Load.260867482_3 Bus1=260867482.3 Phases=1 kV=13.8564 XFKVA=50.0 PF=0.95 yearly=YearlyC daily=DailyC
New Load.254459852_3 Bus1=254459852.3 Phases=1 kV=13.8564 XFKVA=25.0 PF=0.95 yearly=YearlyC daily=DailyC
New Load.254438403_1 Bus1=254438403.1 Phases=1 kV=13.8564 XFKVA=25.0 PF=0.95 yearly=YearlyA daily=DailyA
New Load.260118271_2 Bus1=260118271.2 Phases=1 kV=13.8564 XFKVA=75.0 PF=0.95 yearly=YearlyB daily=DailyB
New Load.260119725_1 Bus1=260119725.1 Phases=1 kV=13.8564 XFKVA=166.7 PF=0.95 yearly=YearlyA daily=DailyA
New Load.260119725_2 Bus1=260119725.2 Phases=1 kV=13.8564 XFKVA=166.7 PF=0.95 yearly=YearlyB daily=DailyB
New Load.260119725_3 Bus1=260119725.3 Phases=1 kV=13.8564 XFKVA=166.7 PF=0.95 yearly=YearlyC daily=DailyC
New Load.254459807_3 Bus1=254459807.3 Phases=1 kV=13.8564 XFKVA=25.0 PF=0.95 yearly=YearlyC daily=DailyC
New Load.260980705_1 Bus1=260980705.1 Phases=1 kV=13.8564 XFKVA=25.0 PF=0.95 yearly=YearlyA daily=DailyA
New Load.254444169_2 Bus1=254444169.2 Phases=1 kV=13.8564 XFKVA=75.0 PF=0.95 yearly=YearlyB daily=DailyB
New Load.259425305_1 Bus1=259425305.1 Phases=1 kV=13.8564 XFKVA=25.0 PF=0.95 yearly=YearlyA daily=DailyA
New Load.254444276_1 Bus1=254444276.1 Phases=1 kV=13.8564 XFKVA=25.0 PF=0.95 yearly=YearlyA daily=DailyA
New Load.254449328_2 Bus1=254449328.2 Phases=1 kV=13.8564 XFKVA=25.0 PF=0.95 yearly=YearlyB daily=DailyB
New Load.254454738_3 Bus1=254454738.3 Phases=1 kV=13.8564 XFKVA=50.0 PF=0.95 yearly=YearlyC daily=DailyC
New Load.482827030_3 Bus1=482827030.3 Phases=1 kV=13.8564 XFKVA=37.5 PF=0.95 yearly=YearlyC daily=DailyC
New Load.254448806_2 Bus1=254448806.2 Phases=1 kV=13.8564 XFKVA=50.0 PF=0.95 yearly=YearlyB daily=DailyB
New Load.254460348_2 Bus1=254460348.2 Phases=1 kV=13.8564 XFKVA=25.0 PF=0.95 yearly=YearlyB daily=DailyB
New Load.260118351_3 Bus1=260118351.3 Phases=1 kV=13.8564 XFKVA=25.0 PF=0.95 yearly=YearlyC daily=DailyC
New Load.254454500_1 Bus1=254454500.1 Phases=1 kV=13.8564 XFKVA=25.0 PF=0.95 yearly=YearlyA daily=DailyA
New Load.620187150_1 Bus1=620187150.1 Phases=1 kV=13.8564 XFKVA=75.0 PF=0.95 yearly=YearlyA daily=DailyA
New Load.620187150_2 Bus1=620187150.2 Phases=1 kV=13.8564 XFKVA=75.0 PF=0.95 yearly=YearlyB daily=DailyB
New Load.620187150_3 Bus1=620187150.3 Phases=1 kV=13.8564 XFKVA=75.0 PF=0.95 yearly=YearlyC daily=DailyC
New Load.254438488_3 Bus1=254438488.3 Phases=1 kV=13.8564 XFKVA=25.0 PF=0.95 yearly=YearlyC daily=DailyC
New Load.260003421_1 Bus1=260003421.1 Phases=1 kV=13.8564 XFKVA=50.0 PF=0.95 yearly=YearlyA daily=DailyA
New Load.260003421_2 Bus1=260003421.2 Phases=1 kV=13.8564 XFKVA=50.0 PF=0.95 yearly=YearlyB daily=DailyB
New Load.260003421_3 Bus1=260003421.3 Phases=1 kV=13.8564 XFKVA=50.0 PF=0.95 yearly=YearlyC daily=DailyC
New Load.259425300_1 Bus1=259425300.1 Phases=1 kV=13.8564 XFKVA=25.0 PF=0.95 yearly=YearlyA daily=DailyA
New Load.259425300_2 Bus1=259425300.2 Phases=1 kV=13.8564 XFKVA=25.0 PF=0.95 yearly=YearlyB daily=DailyB
New Load.259425300_3 Bus1=259425300.3 Phases=1 kV=13.8564 XFKVA=25.0 PF=0.95 yearly=YearlyC daily=DailyC
New Load.254444134_1 Bus1=254444134.1 Phases=1 kV=13.8564 XFKVA=25.0 PF=0.95 yearly=YearlyA daily=DailyA
New Load.254444134_2 Bus1=254444134.2 Phases=1 kV=13.8564 XFKVA=25.0 PF=0.95 yearly=YearlyB daily=DailyB
New Load.254444134_3 Bus1=254444134.3 Phases=1 kV=13.8564 XFKVA=25.0 PF=0.95 yearly=YearlyC daily=DailyC
New Load.254438182_1 Bus1=254438182.1 Phases=1 kV=13.8564 XFKVA=25.0 PF=0.95 yearly=YearlyA daily=DailyA
New Load.254448475_2 Bus1=254448475.2 Phases=1 kV=13.8564 XFKVA=25.0 PF=0.95 yearly=YearlyB daily=DailyB
New Load.254460014_2 Bus1=254460014.2 Phases=1 kV=13.8564 XFKVA=25.0 PF=0.95 yearly=YearlyB daily=DailyB
New Load.254444449_1 Bus1=254444449.1 Phases=1 kV=13.8564 XFKVA=50.0 PF=0.95 yearly=YearlyA daily=DailyA
New Load.254438323_2 Bus1=254438323.2 Phases=1 kV=13.8564 XFKVA=50.0 PF=0.95 yearly=YearlyB daily=DailyB
New Load.254448731_2 Bus1=254448731.2 Phases=1 kV=13.8564 XFKVA=37.5 PF=0.95 yearly=YearlyB daily=DailyB
New Load.254449068_1 Bus1=254449068.1 Phases=1 kV=13.8564 XFKVA=10.0 PF=0.95 yearly=YearlyA daily=DailyA
New Load.254460358_3 Bus1=254460358.3 Phases=1 kV=13.8564 XFKVA=25.0 PF=0.95 yearly=YearlyC daily=DailyC
New Load.254437802_1 Bus1=254437802.1 Phases=1 kV=13.8564 XFKVA=15.0 PF=0.95 yearly=YearlyA daily=DailyA
New Load.254437802_2 Bus1=254437802.2 Phases=1 kV=13.8564 XFKVA=15.0 PF=0.95 yearly=YearlyB daily=DailyB
New Load.254437802_3 Bus1=254437802.3 Phases=1 kV=13.8564 XFKVA=15.0 PF=0.95 yearly=YearlyC daily=DailyC
New Load.254460558_1 Bus1=254460558.1 Phases=1 kV=13.8564 XFKVA=15.0 PF=0.95 yearly=YearlyA daily=DailyA
New Load.254454604_1 Bus1=254454604.1 Phases=1 kV=13.8564 XFKVA=25.0 PF=0.95 yearly=YearlyA daily=DailyA
New Load.254443699_2 Bus1=254443699.2 Phases=1 kV=13.8564 XFKVA=100.0 PF=0.95 yearly=YearlyB daily=DailyB
New Load.483410576_2 Bus1=483410576.2 Phases=1 kV=13.8564 XFKVA=25.0 PF=0.95 yearly=YearlyB daily=DailyB
New Load.254437390_1 Bus1=254437390.1 Phases=1 kV=13.8564 XFKVA=50.0 PF=0.95 yearly=YearlyA daily=DailyA
New Load.254437390_2 Bus1=254437390.2 Phases=1 kV=13.8564 XFKVA=50.0 PF=0.95 yearly=YearlyB daily=DailyB
New Load.254437390_3 Bus1=254437390.3 Phases=1 kV=13.8564 XFKVA=50.0 PF=0.95 yearly=YearlyC daily=DailyC
New Load.254449266_1 Bus1=254449266.1 Phases=1 kV=13.8564 XFKVA=25.0 PF=0.95 yearly=YearlyA daily=DailyA
New Load.483410005_3 Bus1=483410005.3 Phases=1 kV=13.8564 XFKVA=15.0 PF=0.95 yearly=YearlyC daily=DailyC
New Load.254460024_2 Bus1=254460024.2 Phases=1 kV=13.8564 XFKVA=25.0 PF=0.95 yearly=YearlyB daily=DailyB
New Load.254433274_3 Bus1=254433274.3 Phases=1 kV=13.8564 XFKVA=10.0 PF=0.95 yearly=YearlyC daily=DailyC
New Load.254449236_1 Bus1=254449236.1 Phases=1 kV=13.8564 XFKVA=25.0 PF=0.95 yearly=YearlyA daily=DailyA
New Load.254449236_2 Bus1=254449236.2 Phases=1 kV=13.8564 XFKVA=25.0 PF=0.95 yearly=YearlyB daily=DailyB
New Load.254449236_3 Bus1=254449236.3 Phases=1 kV=13.8564 XFKVA=25.0 PF=0.95 yearly=YearlyC daily=DailyC
New Load.254466381_3 Bus1=254466381.3 Phases=1 kV=13.8564 XFKVA=25.0 PF=0.95 yearly=YearlyC daily=DailyC
New Load.254449398_2 Bus1=254449398.2 Phases=1 kV=13.8564 XFKVA=15.0 PF=0.95 yearly=YearlyB daily=DailyB
New Load.261281880_1 Bus1=261281880.1 Phases=1 kV=13.8564 XFKVA=250.0 PF=0.95 yearly=YearlyA daily=DailyA
New Load.261281880_2 Bus1=261281880.2 Phases=1 kV=13.8564 XFKVA=250.0 PF=0.95 yearly=YearlyB daily=DailyB
New Load.261281880_3 Bus1=261281880.3 Phases=1 kV=13.8564 XFKVA=250.0 PF=0.95 yearly=YearlyC daily=DailyC
New Load.254454641_1 Bus1=254454641.1 Phases=1 kV=13.8564 XFKVA=25.0 PF=0.95 yearly=YearlyA daily=DailyA
New Load.254454711_1 Bus1=254454711.1 Phases=1 kV=13.8564 XFKVA=25.0 PF=0.95 yearly=YearlyA daily=DailyA
New Load.254448891_3 Bus1=254448891.3 Phases=1 kV=13.8564 XFKVA=25.0 PF=0.95 yearly=YearlyC daily=DailyC
New Load.482826486_1 Bus1=482826486.1 Phases=1 kV=13.8564 XFKVA=15.0 PF=0.95 yearly=YearlyA daily=DailyA
New Load.482826486_2 Bus1=482826486.2 Phases=1 kV=13.8564 XFKVA=15.0 PF=0.95 yearly=YearlyB daily=DailyB
New Load.482826486_3 Bus1=482826486.3 Phases=1 kV=13.8564 XFKVA=15.0 PF=0.95 yearly=YearlyC daily=DailyC
New Load.254454269_3 Bus1=254454269.3 Phases=1 kV=13.8564 XFKVA=25.0 PF=0.95 yearly=YearlyC daily=DailyC
New Load.254449614_3 Bus1=254449614.3 Phases=1 kV=13.8564 XFKVA=25.0 PF=0.95 yearly=YearlyC daily=DailyC
New Load.254454475_1 Bus1=254454475.1 Phases=1 kV=13.8564 XFKVA=10.0 PF=0.95 yearly=YearlyA daily=DailyA
New Load.254444524_3 Bus1=254444524.3 Phases=1 kV=13.8564 XFKVA=25.0 PF=0.95 yearly=YearlyC daily=DailyC
New Load.254443318_3 Bus1=254443318.3 Phases=1 kV=13.8564 XFKVA=25.0 PF=0.95 yearly=YearlyC daily=DailyC
New Load.261259116_1 Bus1=261259116.1 Phases=1 kV=13.8564 XFKVA=25.0 PF=0.95 yearly=YearlyA daily=DailyA
New Load.261283240_3 Bus1=261283240.3 Phases=1 kV=13.8564 XFKVA=25.0 PF=0.95 yearly=YearlyC daily=DailyC
New Load.254455215_2 Bus1=254455215.2 Phases=1 kV=13.8564 XFKVA=25.0 PF=0.95 yearly=YearlyB daily=DailyB
New Load.254448336_1 Bus1=254448336.1 Phases=1 kV=13.8564 XFKVA=25.0 PF=0.95 yearly=YearlyA daily=DailyA
New Load.254449685_1 Bus1=254449685.1 Phases=1 kV=13.8564 XFKVA=50.0 PF=0.95 yearly=YearlyA daily=DailyA
New Load.254459989_3 Bus1=254459989.3 Phases=1 kV=13.8564 XFKVA=10.0 PF=0.95 yearly=YearlyC daily=DailyC
New Load.254460196_2 Bus1=254460196.2 Phases=1 kV=13.8564 XFKVA=22.5 PF=0.95 yearly=YearlyB daily=DailyB
New Load.254460196_3 Bus1=254460196.3 Phases=1 kV=13.8564 XFKVA=22.5 PF=0.95 yearly=YearlyC daily=DailyC
New Load.385538343_3 Bus1=385538343.3 Phases=1 kV=13.8564 XFKVA=25.0 PF=0.95 yearly=YearlyC daily=DailyC
New Load.254437646_1 Bus1=254437646.1 Phases=1 kV=13.8564 XFKVA=25.0 PF=0.95 yearly=YearlyA daily=DailyA
New Load.411747271_2 Bus1=411747271.2 Phases=1 kV=13.8564 XFKVA=50.0 PF=0.95 yearly=YearlyB daily=DailyB
New Load.254443405_2 Bus1=254443405.2 Phases=1 kV=13.8564 XFKVA=15.0 PF=0.95 yearly=YearlyB daily=DailyB
New Load.259199760_1 Bus1=259199760.1 Phases=1 kV=13.8564 XFKVA=10.0 PF=0.95 yearly=YearlyA daily=DailyA
New Load.259199760_2 Bus1=259199760.2 Phases=1 kV=13.8564 XFKVA=10.0 PF=0.95 yearly=YearlyB daily=DailyB
New Load.259199760_3 Bus1=259199760.3 Phases=1 kV=13.8564 XFKVA=10.0 PF=0.95 yearly=YearlyC daily=DailyC
New Load.254438167_2 Bus1=254438167.2 Phases=1 kV=13.8564 XFKVA=15.0 PF=0.95 yearly=YearlyB daily=DailyB
New Load.254449610_3 Bus1=254449610.3 Phases=1 kV=13.8564 XFKVA=50.0 PF=0.95 yearly=YearlyC daily=DailyC
New Load.254454264_3 Bus1=254454264.3 Phases=1 kV=13.8564 XFKVA=25.0 PF=0.95 yearly=YearlyC daily=DailyC
New Load.260119710_1 Bus1=260119710.1 Phases=1 kV=13.8564 XFKVA=50.0 PF=0.95 yearly=YearlyA daily=DailyA
New Load.260119710_2 Bus1=260119710.2 Phases=1 kV=13.8564 XFKVA=50.0 PF=0.95 yearly=YearlyB daily=DailyB
New Load.260119710_3 Bus1=260119710.3 Phases=1 kV=13.8564 XFKVA=50.0 PF=0.95 yearly=YearlyC daily=DailyC
New Load.259534294_1 Bus1=259534294.1 Phases=1 kV=13.8564 XFKVA=50.0 PF=0.95 yearly=YearlyA daily=DailyA
New Load.254432842_1 Bus1=254432842.1 Phases=1 kV=13.8564 XFKVA=25.0 PF=0.95 yearly=YearlyA daily=DailyA
New Load.466784266_1 Bus1=466784266.1 Phases=1 kV=13.8564 XFKVA=10.0 PF=0.95 yearly=YearlyA daily=DailyA
New Load.466784266_2 Bus1=466784266.2 Phases=1 kV=13.8564 XFKVA=10.0 PF=0.95 yearly=YearlyB daily=DailyB
New Load.466784266_3 Bus1=466784266.3 Phases=1 kV=13.8564 XFKVA=10.0 PF=0.95 yearly=YearlyC daily=DailyC
New Load.254449373_2 Bus1=254449373.2 Phases=1 kV=13.8564 XFKVA=25.0 PF=0.95 yearly=YearlyB daily=DailyB
New Load.254460623_3 Bus1=254460623.3 Phases=1 kV=13.8564 XFKVA=25.0 PF=0.95 yearly=YearlyC daily=DailyC
New Load.254443674_1 Bus1=254443674.1 Phases=1 kV=13.8564 XFKVA=75.0 PF=0.95 yearly=YearlyA daily=DailyA
New Load.254443674_2 Bus1=254443674.2 Phases=1 kV=13.8564 XFKVA=75.0 PF=0.95 yearly=YearlyB daily=DailyB
New Load.254443674_3 Bus1=254443674.3 Phases=1 kV=13.8564 XFKVA=75.0 PF=0.95 yearly=YearlyC daily=DailyC
New Load.254460877_3 Bus1=254460877.3 Phases=1 kV=13.8564 XFKVA=25.0 PF=0.95 yearly=YearlyC daily=DailyC
New Load.254460308_2 Bus1=254460308.2 Phases=1 kV=13.8564 XFKVA=25.0 PF=0.95 yearly=YearlyB daily=DailyB
New Load.254454333_3 Bus1=254454333.3 Phases=1 kV=13.8564 XFKVA=25.0 PF=0.95 yearly=YearlyC daily=DailyC
New Load.259551173_3 Bus1=259551173.3 Phases=1 kV=13.8564 XFKVA=25.0 PF=0.95 yearly=YearlyC daily=DailyC
New Load.261004697_2 Bus1=261004697.2 Phases=1 kV=13.8564 XFKVA=25.0 PF=0.95 yearly=YearlyB daily=DailyB
New Load.254460019_2 Bus1=254460019.2 Phases=1 kV=13.8564 XFKVA=50.0 PF=0.95 yearly=YearlyB daily=DailyB
New Load.254444317_1 Bus1=254444317.1 Phases=1 kV=13.8564 XFKVA=75.0 PF=0.95 yearly=YearlyA daily=DailyA
New Load.254444317_2 Bus1=254444317.2 Phases=1 kV=13.8564 XFKVA=75.0 PF=0.95 yearly=YearlyB daily=DailyB
New Load.254444317_3 Bus1=254444317.3 Phases=1 kV=13.8564 XFKVA=75.0 PF=0.95 yearly=YearlyC daily=DailyC
New Load.254459857_3 Bus1=254459857.3 Phases=1 kV=13.8564 XFKVA=15.0 PF=0.95 yearly=YearlyC daily=DailyC
New Load.254449660_3 Bus1=254449660.3 Phases=1 kV=13.8564 XFKVA=15.0 PF=0.95 yearly=YearlyC daily=DailyC
New Load.254448383_2 Bus1=254448383.2 Phases=1 kV=13.8564 XFKVA=25.0 PF=0.95 yearly=YearlyB daily=DailyB
New Load.254432847_1 Bus1=254432847.1 Phases=1 kV=13.8564 XFKVA=25.0 PF=0.95 yearly=YearlyA daily=DailyA
New Load.254432954_3 Bus1=254432954.3 Phases=1 kV=13.8564 XFKVA=10.0 PF=0.95 yearly=YearlyC daily=DailyC
New Load.254437434_3 Bus1=254437434.3 Phases=1 kV=13.8564 XFKVA=50.0 PF=0.95 yearly=YearlyC daily=DailyC
New Load.254444404_2 Bus1=254444404.2 Phases=1 kV=13.8564 XFKVA=25.0 PF=0.95 yearly=YearlyB daily=DailyB
New Load.254455080_2 Bus1=254455080.2 Phases=1 kV=13.8564 XFKVA=25.0 PF=0.95 yearly=YearlyB daily=DailyB
New Load.259103776_3 Bus1=259103776.3 Phases=1 kV=13.8564 XFKVA=50.0 PF=0.95 yearly=YearlyC daily=DailyC
New Load.254444476_3 Bus1=254444476.3 Phases=1 kV=13.8564 XFKVA=25.0 PF=0.95 yearly=YearlyC daily=DailyC
New Load.259114166_3 Bus1=259114166.3 Phases=1 kV=13.8564 XFKVA=25.0 PF=0.95 yearly=YearlyC daily=DailyC
New Load.254454753_3 Bus1=254454753.3 Phases=1 kV=13.8564 XFKVA=25.0 PF=0.95 yearly=YearlyC daily=DailyC
New Load.254454945_2 Bus1=254454945.2 Phases=1 kV=13.8564 XFKVA=25.0 PF=0.95 yearly=YearlyB daily=DailyB
New Load.254460368_2 Bus1=254460368.2 Phases=1 kV=13.8564 XFKVA=25.0 PF=0.95 yearly=YearlyB daily=DailyB
New Load.254460523_2 Bus1=254460523.2 Phases=1 kV=13.8564 XFKVA=25.0 PF=0.95 yearly=YearlyB daily=DailyB
New Load.254460463_2 Bus1=254460463.2 Phases=1 kV=13.8564 XFKVA=25.0 PF=0.95 yearly=YearlyB daily=DailyB
New Load.254443514_1 Bus1=254443514.1 Phases=1 kV=13.8564 XFKVA=25.0 PF=0.95 yearly=YearlyA daily=DailyA
New Load.254443514_2 Bus1=254443514.2 Phases=1 kV=13.8564 XFKVA=25.0 PF=0.95 yearly=YearlyB daily=DailyB
New Load.254443514_3 Bus1=254443514.3 Phases=1 kV=13.8564 XFKVA=25.0 PF=0.95 yearly=YearlyC daily=DailyC
New Load.254443719_1 Bus1=254443719.1 Phases=1 kV=13.8564 XFKVA=25.0 PF=0.95 yearly=YearlyA daily=DailyA
New Load.254455235_2 Bus1=254455235.2 Phases=1 kV=13.8564 XFKVA=10.0 PF=0.95 yearly=YearlyB daily=DailyB
New Load.482826983_1 Bus1=482826983.1 Phases=1 kV=13.8564 XFKVA=25.0 PF=0.95 yearly=YearlyA daily=DailyA
New Load.482826983_2 Bus1=482826983.2 Phases=1 kV=13.8564 XFKVA=25.0 PF=0.95 yearly=YearlyB daily=DailyB
New Load.482826983_3 Bus1=482826983.3 Phases=1 kV=13.8564 XFKVA=25.0 PF=0.95 yearly=YearlyC daily=DailyC
New Load.254438573_2 Bus1=254438573.2 Phases=1 kV=13.8564 XFKVA=50.0 PF=0.95 yearly=YearlyB daily=DailyB
New Load.254438148_1 Bus1=254438148.1 Phases=1 kV=13.8564 XFKVA=50.0 PF=0.95 yearly=YearlyA daily=DailyA
New Load.637786906_1 Bus1=637786906.1 Phases=1 kV=13.8564 XFKVA=75.0 PF=0.95 yearly=YearlyA daily=DailyA
New Load.254448627_2 Bus1=254448627.2 Phases=1 kV=13.8564 XFKVA=25.0 PF=0.95 yearly=YearlyB daily=DailyB
New Load.254460263_2 Bus1=254460263.2 Phases=1 kV=13.8564 XFKVA=25.0 PF=0.95 yearly=YearlyB daily=DailyB
New Load.620369305_3 Bus1=620369305.3 Phases=1 kV=13.8564 XFKVA=25.0 PF=0.95 yearly=YearlyC daily=DailyC
New Load.260941731_3 Bus1=260941731.3 Phases=1 kV=13.8564 XFKVA=50.0 PF=0.95 yearly=YearlyC daily=DailyC
New Load.260119720_1 Bus1=260119720.1 Phases=1 kV=13.8564 XFKVA=100.0 PF=0.95 yearly=YearlyA daily=DailyA
New Load.260119720_2 Bus1=260119720.2 Phases=1 kV=13.8564 XFKVA=100.0 PF=0.95 yearly=YearlyB daily=DailyB
New Load.260119720_3 Bus1=260119720.3 Phases=1 kV=13.8564 XFKVA=100.0 PF=0.95 yearly=YearlyC daily=DailyC
New Load.254432897_2 Bus1=254432897.2 Phases=1 kV=13.8564 XFKVA=10.0 PF=0.95 yearly=YearlyB daily=DailyB
New Load.254455065_2 Bus1=254455065.2 Phases=1 kV=13.8564 XFKVA=15.0 PF=0.95 yearly=YearlyB daily=DailyB
New Load.254459827_3 Bus1=254459827.3 Phases=1 kV=13.8564 XFKVA=25.0 PF=0.95 yearly=YearlyC daily=DailyC
New Load.254437837_1 Bus1=254437837.1 Phases=1 kV=13.8564 XFKVA=15.0 PF=0.95 yearly=YearlyA daily=DailyA
New Load.260116798_1 Bus1=260116798.1 Phases=1 kV=13.8564 XFKVA=50.0 PF=0.95 yearly=YearlyA daily=DailyA
New Load.260116798_2 Bus1=260116798.2 Phases=1 kV=13.8564 XFKVA=50.0 PF=0.95 yearly=YearlyB daily=DailyB
New Load.260116798_3 Bus1=260116798.3 Phases=1 kV=13.8564 XFKVA=50.0 PF=0.95 yearly=YearlyC daily=DailyC
New Load.254437571_3 Bus1=254437571.3 Phases=1 kV=13.8564 XFKVA=25.0 PF=0.95 yearly=YearlyC daily=DailyC
New Load.254444018_2 Bus1=254444018.2 Phases=1 kV=13.8564 XFKVA=25.0 PF=0.95 yearly=YearlyB daily=DailyB
New Load.254443529_3 Bus1=254443529.3 Phases=1 kV=13.8564 XFKVA=10.0 PF=0.95 yearly=YearlyC daily=DailyC
New Load.254449132_1 Bus1=254449132.1 Phases=1 kV=13.8564 XFKVA=25.0 PF=0.95 yearly=YearlyA daily=DailyA
New Load.260003420_1 Bus1=260003420.1 Phases=1 kV=13.8564 XFKVA=25.0 PF=0.95 yearly=YearlyA daily=DailyA
New Load.260003420_2 Bus1=260003420.2 Phases=1 kV=13.8564 XFKVA=25.0 PF=0.95 yearly=YearlyB daily=DailyB
New Load.260003420_3 Bus1=260003420.3 Phases=1 kV=13.8564 XFKVA=25.0 PF=0.95 yearly=YearlyC daily=DailyC
New Load.254459944_2 Bus1=254459944.2 Phases=1 kV=13.8564 XFKVA=25.0 PF=0.95 yearly=YearlyB daily=DailyB
New Load.254437259_1 Bus1=254437259.1 Phases=1 kV=13.8564 XFKVA=25.0 PF=0.95 yearly=YearlyA daily=DailyA
New Load.254437259_2 Bus1=254437259.2 Phases=1 kV=13.8564 XFKVA=25.0 PF=0.95 yearly=YearlyB daily=DailyB
New Load.254437259_3 Bus1=254437259.3 Phases=1 kV=13.8564 XFKVA=25.0 PF=0.95 yearly=YearlyC daily=DailyC
New Load.254444604_2 Bus1=254444604.2 Phases=1 kV=13.8564 XFKVA=25.0 PF=0.95 yearly=YearlyB daily=DailyB
New Load.254448999_2 Bus1=254448999.2 Phases=1 kV=13.8564 XFKVA=25.0 PF=0.95 yearly=YearlyB daily=DailyB
New Load.254460338_2 Bus1=254460338.2 Phases=1 kV=13.8564 XFKVA=15.0 PF=0.95 yearly=YearlyB daily=DailyB
New Load.259152779_2 Bus1=259152779.2 Phases=1 kV=13.8564 XFKVA=25.0 PF=0.95 yearly=YearlyB daily=DailyB
...
